data_image0
_cell_length_a       8.16778
_cell_length_b       8.16778
_cell_length_c       8.16778
_cell_angle_alpha    60
_cell_angle_beta     60
_cell_angle_gamma    60

_symmetry_space_group_name_H-M    P 1
_symmetry_int_tables_number       1

loop_
  _symmetry_equiv_pos_as_xyz
  'x, y, z'

loop_
  _atom_site_label
  _atom_site_occupancy
  _atom_site_fract_x
  _atom_site_fract_y
  _atom_site_fract_z
  _atom_site_thermal_displace_type
  _atom_site_B_iso_or_equiv
  _atom_site_type_symbol
  Co1      1.0000 0.62061  0.62061  0.13816  Biso   1.000  Co
  Co2      1.0000 0.17069  0.17069  0.17069  Biso   1.000  Co
  Co3      1.0000 0.48792  0.17069  0.17069  Biso   1.000  Co
  Co4      1.0000 0.17069  0.48792  0.17069  Biso   1.000  Co
  Co5      1.0000 0.37938  0.37938  0.37938  Biso   1.000  Co
  Co6      1.0000 0.86184  0.37938  0.37938  Biso   1.000  Co
  Co7      1.0000 0.37938  0.86184  0.37938  Biso   1.000  Co
  Co8      1.0000 0.17069  0.17069  0.48792  Biso   1.000  Co
  Co9      1.0000 0.82931  0.82931  0.51208  Biso   1.000  Co
  Co10     1.0000 0.62061  0.13816  0.62061  Biso   1.000  Co
  Co11     1.0000 0.13816  0.62061  0.62061  Biso   1.000  Co
  Co12     1.0000 0.62061  0.62061  0.62061  Biso   1.000  Co
  Co13     1.0000 0.82931  0.51208  0.82931  Biso   1.000  Co
  Co14     1.0000 0.51208  0.82931  0.82931  Biso   1.000  Co
  Co15     1.0000 0.82931  0.82931  0.82931  Biso   1.000  Co
  Co16     1.0000 0.37938  0.37938  0.86184  Biso   1.000  Co
  Ge1      1.0000 0.50000  0.00000  0.00000  Biso   1.000  Ge
  Ge2      1.0000 0.00000  0.50000  0.00000  Biso   1.000  Ge
  Ge3      1.0000 0.50000  0.50000  0.00000  Biso   1.000  Ge
  Ge4      1.0000 0.50000  0.00000  0.50000  Biso   1.000  Ge
  Ge5      1.0000 0.00000  0.50000  0.50000  Biso   1.000  Ge
  Ge6      1.0000 0.50000  0.50000  0.50000  Biso   1.000  Ge
  Ge7      1.0000 0.00000  0.00000  0.50000  Biso   1.000  Ge
  Zr1      1.0000 0.79443  0.20557  0.20557  Biso   1.000  Zr
  Zr2      1.0000 0.20557  0.79443  0.20557  Biso   1.000  Zr
  Zr3      1.0000 0.79443  0.79443  0.20557  Biso   1.000  Zr
  Zr4      1.0000 0.20557  0.20557  0.79443  Biso   1.000  Zr
  Zr5      1.0000 0.79443  0.20557  0.79443  Biso   1.000  Zr
  Zr6      1.0000 0.20557  0.79443  0.79443  Biso   1.000  Zr
